# CIF file generated by openbabel 2.4.1, see http://openbabel.sf.net
data_I
_chemical_name_common 'b_Mn_13_2_5'
_cell_length_a 15.3906
_cell_length_b 15.3906
_cell_length_c 8.5898
_cell_angle_alpha 90
_cell_angle_beta 90
_cell_angle_gamma 120
_space_group_name_H-M_alt 'P 1'
_space_group_name_Hall 'P 1'
loop_
    _symmetry_equiv_pos_as_xyz
    x,y,z
loop_
    _atom_site_label
    _atom_site_type_symbol
    _atom_site_fract_x
    _atom_site_fract_y
    _atom_site_fract_z
    _atom_site_occupancy
    Zn1     Zn   0.33333   0.66667   0.25000   1.000
    Zn2     Zn   0.28609   0.00000   0.25000   1.000
    Li1     Li   0.60885   0.00000   0.25000   0.660
    Mn1     Mn   0.60885   0.00000   0.25000   0.340
    Li2     Li   0.00000   0.00000   0.00000   1.000
    B1      B    0.13126   0.00000   0.25000   1.000
    H11     H    0.08901   0.00000   0.35798   1.000
    H12     H    0.13905   0.93061   0.25000   1.000
    B2      B    0.33200   0.00000   0.00180   1.000
    H21     H    0.29579   0.00000   0.88699   1.000
    H22     H    0.40448   0.00000   0.97890   1.000
    H23     H    0.27917   0.93061   0.07065   1.000
    B3      B    0.52525   0.34374   0.25000   1.000
    H31     H    0.44322   0.28349   0.25000   1.000
    H32     H    0.53165   0.42033   0.25000   1.000
    H33     H    0.56306   0.33557   0.14233   1.000
    Zn1     Zn   0.66667   0.33333   0.75000   1.000
    Zn1     Zn   0.66667   0.33333   0.25000   1.000
    Zn1     Zn   0.33333   0.66667   0.75000   1.000
    Zn2     Zn   0.00000   0.28609   0.25000   1.000
    Zn2     Zn   0.71391   0.71391   0.25000   1.000
    Zn2     Zn   0.71391   0.00000   0.75000   1.000
    Zn2     Zn   0.00000   0.71391   0.75000   1.000
    Zn2     Zn   0.28609   0.28609   0.75000   1.000
    Li1     Li   0.00000   0.60885   0.25000   0.660
    Li1     Li   0.39115   0.39115   0.25000   0.660
    Li1     Li   0.39115   0.00000   0.75000   0.660
    Li1     Li   0.00000   0.39115   0.75000   0.660
    Li1     Li   0.60885   0.60885   0.75000   0.660
    Li2     Li   0.00000   0.00000   0.50000   1.000
    B1      B    0.00000   0.13126   0.25000   1.000
    B1      B    0.86874   0.86874   0.25000   1.000
    B1      B    0.86874   0.00000   0.75000   1.000
    B1      B    0.00000   0.86874   0.75000   1.000
    B1      B    0.13126   0.13126   0.75000   1.000
    H11     H    0.00000   0.08901   0.35798   1.000
    H11     H    0.91099   0.91099   0.35798   1.000
    H11     H    0.91099   0.00000   0.85798   1.000
    H11     H    0.00000   0.91099   0.85798   1.000
    H11     H    0.08901   0.08901   0.85798   1.000
    H11     H    0.00000   0.08901   0.14202   1.000
    H11     H    0.08901   0.00000   0.14202   1.000
    H11     H    0.91099   0.91099   0.14202   1.000
    H11     H    0.00000   0.91099   0.64202   1.000
    H11     H    0.91099   0.00000   0.64202   1.000
    H11     H    0.08901   0.08901   0.64202   1.000
    H12     H    0.06939   0.20844   0.25000   1.000
    H12     H    0.79156   0.86095   0.25000   1.000
    H12     H    0.86095   0.06939   0.75000   1.000
    H12     H    0.93061   0.79156   0.75000   1.000
    H12     H    0.20844   0.13905   0.75000   1.000
    H12     H    0.93061   0.13905   0.25000   1.000
    H12     H    0.20844   0.06939   0.25000   1.000
    H12     H    0.86095   0.79156   0.25000   1.000
    H12     H    0.06939   0.86095   0.75000   1.000
    H12     H    0.79156   0.93061   0.75000   1.000
    H12     H    0.13905   0.20844   0.75000   1.000
    B2      B    0.00000   0.33200   0.00180   1.000
    B2      B    0.66800   0.66800   0.00180   1.000
    B2      B    0.66800   0.00000   0.50180   1.000
    B2      B    0.00000   0.66800   0.50180   1.000
    B2      B    0.33200   0.33200   0.50180   1.000
    B2      B    0.00000   0.33200   0.49820   1.000
    B2      B    0.33200   0.00000   0.49820   1.000
    B2      B    0.66800   0.66800   0.49820   1.000
    B2      B    0.00000   0.66800   0.99820   1.000
    B2      B    0.66800   0.00000   0.99820   1.000
    B2      B    0.33200   0.33200   0.99820   1.000
    H21     H    0.00000   0.29579   0.88699   1.000
    H21     H    0.70421   0.70421   0.88699   1.000
    H21     H    0.70421   0.00000   0.38699   1.000
    H21     H    0.00000   0.70421   0.38699   1.000
    H21     H    0.29579   0.29579   0.38699   1.000
    H21     H    0.00000   0.29579   0.61301   1.000
    H21     H    0.29579   0.00000   0.61301   1.000
    H21     H    0.70421   0.70421   0.61301   1.000
    H21     H    0.00000   0.70421   0.11301   1.000
    H21     H    0.70421   0.00000   0.11301   1.000
    H21     H    0.29579   0.29579   0.11301   1.000
    H22     H    0.00000   0.40448   0.97890   1.000
    H22     H    0.59552   0.59552   0.97890   1.000
    H22     H    0.59552   0.00000   0.47890   1.000
    H22     H    0.00000   0.59552   0.47890   1.000
    H22     H    0.40448   0.40448   0.47890   1.000
    H22     H    0.00000   0.40448   0.52110   1.000
    H22     H    0.40448   0.00000   0.52110   1.000
    H22     H    0.59552   0.59552   0.52110   1.000
    H22     H    0.00000   0.59552   0.02110   1.000
    H22     H    0.59552   0.00000   0.02110   1.000
    H22     H    0.40448   0.40448   0.02110   1.000
    H23     H    0.06939   0.34856   0.07065   1.000
    H23     H    0.65144   0.72083   0.07065   1.000
    H23     H    0.72083   0.06939   0.57065   1.000
    H23     H    0.93061   0.65144   0.57065   1.000
    H23     H    0.34856   0.27917   0.57065   1.000
    H23     H    0.93061   0.27917   0.42935   1.000
    H23     H    0.34856   0.06939   0.42935   1.000
    H23     H    0.72083   0.65144   0.42935   1.000
    H23     H    0.06939   0.72083   0.92935   1.000
    H23     H    0.65144   0.93061   0.92935   1.000
    H23     H    0.27917   0.34856   0.92935   1.000
    H23     H    0.72083   0.06939   0.92935   1.000
    H23     H    0.93061   0.65144   0.92935   1.000
    H23     H    0.34856   0.27917   0.92935   1.000
    H23     H    0.27917   0.93061   0.42935   1.000
    H23     H    0.06939   0.34856   0.42935   1.000
    H23     H    0.65144   0.72083   0.42935   1.000
    H23     H    0.06939   0.72083   0.57065   1.000
    H23     H    0.65144   0.93061   0.57065   1.000
    H23     H    0.27917   0.34856   0.57065   1.000
    H23     H    0.93061   0.27917   0.07065   1.000
    H23     H    0.34856   0.06939   0.07065   1.000
    H23     H    0.72083   0.65144   0.07065   1.000
    B3      B    0.65626   0.18151   0.25000   1.000
    B3      B    0.81849   0.47475   0.25000   1.000
    B3      B    0.47475   0.65626   0.75000   1.000
    B3      B    0.34374   0.81849   0.75000   1.000
    B3      B    0.18151   0.52525   0.75000   1.000
    B3      B    0.34374   0.52525   0.25000   1.000
    B3      B    0.18151   0.65626   0.25000   1.000
    B3      B    0.47475   0.81849   0.25000   1.000
    B3      B    0.65626   0.47475   0.75000   1.000
    B3      B    0.81849   0.34374   0.75000   1.000
    B3      B    0.52525   0.18151   0.75000   1.000
    H31     H    0.71651   0.15972   0.25000   1.000
    H31     H    0.84028   0.55678   0.25000   1.000
    H31     H    0.55678   0.71651   0.75000   1.000
    H31     H    0.28349   0.84028   0.75000   1.000
    H31     H    0.15972   0.44322   0.75000   1.000
    H31     H    0.28349   0.44322   0.25000   1.000
    H31     H    0.15972   0.71651   0.25000   1.000
    H31     H    0.55678   0.84028   0.25000   1.000
    H31     H    0.71651   0.55678   0.75000   1.000
    H31     H    0.84028   0.28349   0.75000   1.000
    H31     H    0.44322   0.15972   0.75000   1.000
    H32     H    0.57967   0.11132   0.25000   1.000
    H32     H    0.88868   0.46835   0.25000   1.000
    H32     H    0.46835   0.57967   0.75000   1.000
    H32     H    0.42033   0.88868   0.75000   1.000
    H32     H    0.11132   0.53165   0.75000   1.000
    H32     H    0.42033   0.53165   0.25000   1.000
    H32     H    0.11132   0.57967   0.25000   1.000
    H32     H    0.46835   0.88868   0.25000   1.000
    H32     H    0.57967   0.46835   0.75000   1.000
    H32     H    0.88868   0.42033   0.75000   1.000
    H32     H    0.53165   0.11132   0.75000   1.000
    H33     H    0.66443   0.22749   0.14233   1.000
    H33     H    0.77251   0.43694   0.14233   1.000
    H33     H    0.43694   0.66443   0.64233   1.000
    H33     H    0.33557   0.77251   0.64233   1.000
    H33     H    0.22749   0.56306   0.64233   1.000
    H33     H    0.33557   0.56306   0.35767   1.000
    H33     H    0.22749   0.66443   0.35767   1.000
    H33     H    0.43694   0.77251   0.35767   1.000
    H33     H    0.66443   0.43694   0.85767   1.000
    H33     H    0.77251   0.33557   0.85767   1.000
    H33     H    0.56306   0.22749   0.85767   1.000
    H33     H    0.43694   0.66443   0.85767   1.000
    H33     H    0.33557   0.77251   0.85767   1.000
    H33     H    0.22749   0.56306   0.85767   1.000
    H33     H    0.56306   0.33557   0.35767   1.000
    H33     H    0.66443   0.22749   0.35767   1.000
    H33     H    0.77251   0.43694   0.35767   1.000
    H33     H    0.66443   0.43694   0.64233   1.000
    H33     H    0.77251   0.33557   0.64233   1.000
    H33     H    0.56306   0.22749   0.64233   1.000
    H33     H    0.33557   0.56306   0.14233   1.000
    H33     H    0.22749   0.66443   0.14233   1.000
    H33     H    0.43694   0.77251   0.14233   1.000
