# CIF file generated by openbabel 2.4.1, see http://openbabel.sf.net
data_I
_chemical_name_common 'Lithium borohydride'
_cell_length_a 4.27631
_cell_length_b 4.27631
_cell_length_c 6.94844
_cell_angle_alpha 90
_cell_angle_beta 90
_cell_angle_gamma 120
_space_group_name_H-M_alt 'P 1'
_space_group_name_Hall 'P 1'
loop_
    _symmetry_equiv_pos_as_xyz
    x,y,z
loop_
    _atom_site_label
    _atom_site_type_symbol
    _atom_site_fract_x
    _atom_site_fract_y
    _atom_site_fract_z
    _atom_site_occupancy
    B1      B    0.33000   0.67000   0.57560   1.000
    H1      H    0.33000   0.67000   0.43700   1.000
    H2      H    0.20530   0.41060   0.63210   1.000
    B1G     B    0.34000   0.67000   0.57560   1.000
    H1G     H    0.34000   0.67000   0.43700   1.000
    H1K     H    0.33000   0.66000   0.43700   1.000
    B1K     B    0.33000   0.66000   0.57560   1.000
    H2K     H    0.20530   0.79470   0.63210   1.000
    H2C     H    0.58940   0.79470   0.63210   1.000
    Li1     Li   0.33000   0.67000   0.00000   1.000
    B1      B    0.67000   0.33000   0.07560   1.000
    H1      H    0.67000   0.33000   0.93700   1.000
    H2      H    0.79470   0.58940   0.13210   1.000
    H2      H    0.41060   0.20530   0.13210   1.000
    H2      H    0.79470   0.20530   0.13210   1.000
    B1G     B    0.66000   0.33000   0.07560   1.000
    H1G     H    0.66000   0.33000   0.93700   1.000
    H1K     H    0.67000   0.34000   0.93700   1.000
    B1K     B    0.67000   0.34000   0.07560   1.000
    Li1     Li   0.67000   0.33000   0.50000   1.000
