# CIF file generated by openbabel 2.4.1, see http://openbabel.sf.net
data_I
_chemical_name_common 'Lithium borohydride'
_cell_length_a 7.17858
_cell_length_b 4.43686
_cell_length_c 6.80321
_cell_angle_alpha 90
_cell_angle_beta 90
_cell_angle_gamma 90
_space_group_name_H-M_alt 'P 1'
_space_group_name_Hall 'P 1'
loop_
    _symmetry_equiv_pos_as_xyz
    x,y,z
loop_
    _atom_site_label
    _atom_site_type_symbol
    _atom_site_fract_x
    _atom_site_fract_y
    _atom_site_fract_z
    _atom_site_occupancy
    Li1     Li   0.15970   0.25000   0.11060   1.000
    B1      B    0.30540   0.25000   0.43010   1.000
    H1      H    0.40720   0.25000   0.57590   1.000
    H2      H    0.39950   0.25000   0.27660   1.000
    H3      H    0.20480   0.02930   0.42680   1.000
    H3G     H    0.20480   0.47070   0.42680   1.000
    B1      B    0.19460   0.75000   0.93010   1.000
    B1      B    0.69460   0.75000   0.56990   1.000
    B1      B    0.80540   0.25000   0.06990   1.000
    H1      H    0.09280   0.75000   0.07590   1.000
    H1      H    0.59280   0.75000   0.42410   1.000
    H1      H    0.90720   0.25000   0.92410   1.000
    H2      H    0.10050   0.75000   0.77660   1.000
    H2      H    0.60050   0.75000   0.72340   1.000
    H2      H    0.89950   0.25000   0.22340   1.000
    H3      H    0.29520   0.97070   0.92680   1.000
    H3      H    0.79520   0.52930   0.57320   1.000
    H3      H    0.70480   0.47070   0.07320   1.000
    H3      H    0.79520   0.97070   0.57320   1.000
    H3      H    0.70480   0.02930   0.07320   1.000
    H3      H    0.29520   0.52930   0.92680   1.000
    Li1     Li   0.34030   0.75000   0.61060   1.000
    Li1     Li   0.84030   0.75000   0.88940   1.000
    Li1     Li   0.65970   0.25000   0.38940   1.000
